Version 4.1
SHEET 1 1464 1232
WIRE -96 160 -176 160
WIRE 32 160 -96 160
WIRE 176 160 32 160
WIRE 304 160 256 160
WIRE 528 160 384 160
WIRE 688 160 528 160
WIRE 784 160 688 160
WIRE -96 224 -96 160
WIRE 32 224 32 160
WIRE 528 256 528 160
WIRE 688 256 688 160
WIRE -96 304 -96 288
WIRE 32 304 32 288
WIRE 528 336 528 320
WIRE 688 336 688 320
WIRE -336 560 -400 560
WIRE -400 592 -400 560
WIRE -400 688 -400 672
WIRE -112 864 -160 864
WIRE 16 864 -112 864
WIRE 128 864 16 864
WIRE 256 864 208 864
WIRE 416 864 336 864
WIRE 576 864 416 864
WIRE 624 864 576 864
WIRE -112 912 -112 864
WIRE 16 912 16 864
WIRE 416 944 416 864
WIRE 576 944 576 864
WIRE -112 992 -112 976
WIRE 16 992 16 976
WIRE 416 1024 416 1008
WIRE 576 1024 576 1008
FLAG -400 688 0
FLAG -336 560 4.8V
IOPIN -336 560 Out
FLAG -160 864 4.8V
IOPIN -160 864 In
FLAG -176 160 4.8V
IOPIN -176 160 In
FLAG 784 160 V_out_FB
IOPIN 784 160 Out
FLAG 624 864 V_out_L
IOPIN 624 864 Out
FLAG -96 304 0
FLAG 688 336 0
FLAG -112 992 0
FLAG 576 1024 0
FLAG 16 1072 0
FLAG 416 1104 0
FLAG 528 416 0
FLAG 32 384 0
SYMBOL ind 160 176 R270
WINDOW 0 69 56 VBottom 2
WINDOW 3 5 56 Invisible 2
SYMATTR InstName XFB
SYMATTR Value BLM15EG221SN1
SYMATTR Prefix X
SYMBOL ind 112 880 R270
WINDOW 0 32 56 VTop 2
WINDOW 3 5 56 Invisible 2
SYMATTR InstName XL
SYMATTR Value LQM18PH1R0MFC
SYMATTR Prefix X
SYMBOL cap 16 224 R0
WINDOW 3 24 56 Invisible 2
SYMATTR Value GCQ1555C1H100JB01_DC0V_25degC
SYMATTR InstName XC2
SYMATTR Prefix X
SYMBOL voltage -400 576 R0
WINDOW 123 24 124 Left 2
WINDOW 39 0 0 Left 0
SYMATTR Value2 AC 1
SYMATTR InstName V1
SYMATTR Value 4.8V
SYMBOL cap 672 256 R0
WINDOW 3 24 56 Invisible 2
SYMATTR Value GRM033R61C104KE18_DC0V_25degC
SYMATTR InstName XC4
SYMATTR Prefix X
SYMBOL cap -112 224 R0
WINDOW 0 -32 13 Left 2
WINDOW 3 24 56 Invisible 2
SYMATTR InstName XC3
SYMATTR Value GRT155R61E105KE01_DC0V_25degC
SYMATTR Prefix X
SYMBOL cap 512 256 R0
WINDOW 3 24 56 Invisible 2
SYMATTR Value GCQ1555C1H100JB01_DC0V_25degC
SYMATTR InstName XC1
SYMATTR Prefix X
SYMBOL cap 0 912 R0
WINDOW 3 24 56 Invisible 2
SYMATTR Value GCQ1555C1H100JB01_DC0V_25degC
SYMATTR InstName XC5
SYMATTR Prefix X
SYMBOL cap -128 912 R0
WINDOW 0 -32 13 Left 2
WINDOW 3 24 56 Invisible 2
SYMATTR InstName XC6
SYMATTR Value GRT155R61E105KE01_DC0V_25degC
SYMATTR Prefix X
SYMBOL cap 560 944 R0
WINDOW 3 24 56 Invisible 2
SYMATTR Value GRM033R61C104KE18_DC0V_25degC
SYMATTR InstName XC7
SYMATTR Prefix X
SYMBOL cap 400 944 R0
WINDOW 3 24 56 Invisible 2
SYMATTR Value GCQ1555C1H100JB01_DC0V_25degC
SYMATTR InstName XC8
SYMATTR Prefix X
SYMBOL res 400 144 R90
WINDOW 0 0 56 VBottom 2
WINDOW 3 32 56 VTop 2
SYMATTR InstName R1
SYMATTR Value 2
SYMBOL res 352 848 R90
WINDOW 0 0 56 VBottom 2
WINDOW 3 32 56 VTop 2
SYMATTR InstName R2
SYMATTR Value 2
SYMBOL res 512 320 R0
SYMATTR InstName R3
SYMATTR Value 2
SYMBOL res 16 288 R0
SYMATTR InstName R4
SYMATTR Value 2
SYMBOL res 400 1008 R0
SYMATTR InstName R5
SYMATTR Value 2
SYMBOL res 0 976 R0
SYMATTR InstName R6
SYMATTR Value 2
TEXT 104 72 Left 2 ;Ferrite Bead Pi Filter
TEXT 80 784 Left 2 ;Inductor Pi Filter
TEXT 848 760 Left 2 !.include BLM15EG221SN1.mod
TEXT 864 848 Left 2 !.include GRM033R61C104KE18_DC0V_25degC.mod
TEXT 832 936 Left 2 !.include GCQ1555C1H100JB01_DC0V_25degC.mod
TEXT 824 1000 Left 2 !.include GRT155R61E105KE01_DC0V_25degC.mod
TEXT 824 1032 Left 2 !.include LQM18PH1R0MFC.mod
TEXT 304 592 Left 2 !.ac dec 1000 1000 4GHz
TEXT 824 1112 Left 2 !.include GRM1555C1H8R0BA01_DC0V_25degC.mod
TEXT 824 1168 Left 2 !.include GRM1555C1H1R0BA01_DC0V_25degC.mod
