*----------------------------------------------------------------------
* SPICE Model generated by Murata Manufacturing Co., Ltd.
* Copyright(C) Murata Manufacturing Co., Ltd.
* MURATA P/N : BLM15EG221SN1
* Property : Z@100MHz = 220[ohm]
*----------------------------------------------------------------------
* Applicable Conditions:
*   Frequency Range = 1MHz - 3GHz
*   Temperature = 25 degC
*   DC Bias Current = 0 A
*   Small Signal Operation
*----------------------------------------------------------------------
.SUBCKT BLM15EG221SN1 port1 port2
R1 port1 1 128.1
L1 port1 1 1.531e-7
C1 port1 2 1.880e-13
R2 1 2 39.37
L2 1 2 5.742e-7
R3 2 3 117.7
L3 2 3 4.350e-7
R4 3 port2 2.100e-1
.ENDS BLM15EG221SN1
*----------------------------------------------------------------------
