*----------------------------------------------------------------------
* SPICE Model generated by Murata Manufacturing Co., Ltd.
* Copyright(C) Murata Manufacturing Co., Ltd.
* Description :1005M(0402)/C0G/10pF/50V
* Murata P/N :GCQ1555C1H100JB01
* Property : C = 10[pF]
* Data Generated on Apr 1, 2025
*----------------------------------------------------------------------
* Applicable Conditions:
*   Frequency Range = 100MHz-20GHz
*   Temperature = 25 degC
*   DC Bias Voltage = 0V
*   Small Signal Operation
*----------------------------------------------------------------------
.SUBCKT GCQ1555C1H100JB01_DC0V_25degC port1 port2
C1 port1 11 10.0e-12
L2 11 12 2.58e-10
R3 12 13 8.04e-2
L4 13 14 6.79e-12
R4 13 14 1.31e-1
C5 14 15 6.76e-11
L5 14 15 8.41e-12
R5 14 15 9.01
C6 15 16 1.55e-11
L6 15 16 1.56e-11
R6 15 16 22.4
C7 16 17 8.65e-11
L7 16 17 1.58e-12
R7 16 17 3.40
C8 17 18 3.28e-11
L8 17 18 3.21e-12
R8 17 18 5.64
C9 18 19 1.01e-10
L9 18 19 8.91e-13
R9 18 19 1.74
C10 19 20 4.55e-11
L10 19 20 1.41e-12
R10 19 20 2.80
C11 20 21 5.73e-12
L11 20 21 8.11e-12
R11 20 21 23.3
C12 21 22 9.58e-12
L12 21 22 4.09e-12
R12 21 22 13.4
C13 22 port2 2.06e-11
L13 22 port2 1.54e-12
R13 22 port2 10.5
R100 port1 11 1.00e+10
.ENDS GCQ1555C1H100JB01_DC0V_25degC