*----------------------------------------------------------------------
* SPICE Model generated by Murata Manufacturing Co., Ltd.
* Copyright(C) Murata Manufacturing Co., Ltd.
* Description :0603M(0201)/X5R/0.1uF/16V
* Murata P/N :GRM033R61C104KE18
* Property : C = 0.1[uF]
* Data Generated on Nov 6, 2018
*----------------------------------------------------------------------
* Applicable Conditions:
*   Frequency Range = 100Hz-6GHz
*   Temperature = 25 degC
*   DC Bias Voltage = 0V
*   Small Signal Operation
*----------------------------------------------------------------------
.SUBCKT GRM033R61C104KE18_DC0V_25degC port1 port2
C1 port1 11 7.58e-8
L2 11 12 1.58e-10
R3 12 13 2.38e-2
C4 13 14 3.89e-6
R4 13 14 412
C5 14 15 6.18e-6
R5 14 15 33.5
C6 15 16 5.90e-6
R6 15 16 4.12
C7 16 17 4.54e-6
R7 16 17 5.43e-1
C8 17 18 3.46e-6
R8 17 18 8.96e-2
C9 18 19 2.61e-6
R9 18 19 1.71e-2
L10 19 20 1.78e-11
R10 19 20 2.26e-1
L11 20 21 4.17e-11
R11 20 21 7.48e-2
C12 21 22 2.36e-7
L12 21 22 1.65e-11
R12 21 22 6.11e-3
C13 22 23 1.92e-7
L13 22 23 1.14e-11
R13 22 23 7.54e-3
C14 23 port2 1.88e-11
L14 23 port2 1.12e-11
R14 23 port2 1.36
R100 port1 11 5.00e+8
.ENDS GRM033R61C104KE18_DC0V_25degC