*----------------------------------------------------------------------
* SPICE Model generated by Murata Manufacturing Co., Ltd.
* Copyright(C) Murata Manufacturing Co., Ltd.
* Description :1005M(0402)/C0G/1pF/50V
* Murata P/N :GRM1555C1H1R0BA01
* Property : C = 1[pF]
* Data Generated on Jan 10, 2017
*----------------------------------------------------------------------
* Applicable Conditions:
*   Frequency Range = 100MHz-20GHz
*   Temperature = 25 degC
*   DC Bias Voltage = 0V
*   Small Signal Operation
*----------------------------------------------------------------------
.SUBCKT GRM1555C1H1R0BA01_DC0V_25degC port1 port2
C1 port1 11 10.0e-13
L2 11 12 1.34e-10
R3 12 13 7.33e-1
C4 13 14 1.26e-12
L4 13 14 5.19e-11
R4 13 14 31.1
C5 14 port2 1.20e-13
L5 14 port2 2.65e-10
R5 14 port2 1.00e+8
R100 port1 11 1.00e+10
.ENDS GRM1555C1H1R0BA01_DC0V_25degC