*----------------------------------------------------------------------
* SPICE Model generated by Murata Manufacturing Co., Ltd.
* Copyright(C) Murata Manufacturing Co., Ltd.
* Description :1005M(0402)/C0G/8pF/50V
* Murata P/N :GRM1555C1H8R0BA01
* Property : C = 8[pF]
* Data Generated on Jan 10, 2017
*----------------------------------------------------------------------
* Applicable Conditions:
*   Frequency Range = 100MHz-8.5GHz
*   Temperature = 25 degC
*   DC Bias Voltage = 0V
*   Small Signal Operation
*----------------------------------------------------------------------
.SUBCKT GRM1555C1H8R0BA01_DC0V_25degC port1 port2
C1 port1 11 8.00e-12
L2 11 12 2.60e-10
R3 12 13 1.96e-1
L4 13 14 2.21e-11
R4 13 14 3.42e-1
C5 14 15 1.93e-10
L5 14 15 3.33e-12
R5 14 15 6.28e-1
C6 15 16 3.93e-11
L6 15 16 8.74e-12
R6 15 16 1.61
C7 16 port2 7.98e-12
L7 16 port2 3.45e-11
R7 16 port2 1.00e+5
R100 port1 11 1.00e+10
.ENDS GRM1555C1H8R0BA01_DC0V_25degC