Version 4.1
SHEET 1 880 1024
WIRE 240 -192 224 -192
WIRE 256 -192 240 -192
WIRE 320 -192 304 -192
WIRE 224 -80 224 -192
WIRE 224 -80 48 -80
WIRE 240 -80 224 -80
WIRE 320 -80 320 -192
WIRE 48 -48 48 -80
WIRE 48 96 48 32
WIRE 224 96 48 96
WIRE 240 96 224 96
WIRE 256 96 240 96
WIRE 320 96 304 96
WIRE 224 208 224 96
WIRE 240 208 224 208
WIRE 320 208 320 96
WIRE 240 288 224 288
WIRE 256 288 240 288
WIRE 320 288 304 288
WIRE 224 400 224 288
WIRE 224 400 48 400
WIRE 240 400 224 400
WIRE 320 400 320 288
WIRE 48 432 48 400
WIRE 48 560 48 512
WIRE 224 560 48 560
WIRE 240 560 224 560
WIRE 256 560 240 560
WIRE 320 560 304 560
WIRE 224 672 224 560
WIRE 240 672 224 672
WIRE 320 672 320 560
WIRE 240 784 224 784
WIRE 256 784 240 784
WIRE 320 784 304 784
WIRE 224 896 224 784
WIRE 224 896 48 896
WIRE 240 896 224 896
WIRE 320 896 320 784
WIRE 48 928 48 896
SYMBOL voltage 48 -64 R0
SYMATTR InstName Channel_1
SYMBOL voltage 48 416 R0
SYMATTR InstName Channel_2
SYMBOL voltage 48 912 R0
SYMATTR InstName RLD
SYMBOL res 336 -96 R90
WINDOW 0 0 56 VBottom 2
WINDOW 3 32 56 VTop 2
SYMATTR InstName R1
SYMBOL cap 304 -208 R90
WINDOW 0 0 32 VBottom 2
WINDOW 3 32 32 VTop 2
SYMATTR InstName C1
SYMBOL res 336 384 R90
WINDOW 0 0 56 VBottom 2
WINDOW 3 32 56 VTop 2
SYMATTR InstName R2
SYMBOL cap 304 272 R90
WINDOW 0 0 32 VBottom 2
WINDOW 3 32 32 VTop 2
SYMATTR InstName C2
SYMBOL res 336 880 R90
WINDOW 0 0 56 VBottom 2
WINDOW 3 32 56 VTop 2
SYMATTR InstName R3
SYMBOL cap 304 768 R90
WINDOW 0 0 32 VBottom 2
WINDOW 3 32 32 VTop 2
SYMATTR InstName C3
SYMBOL res 336 656 R90
WINDOW 0 0 56 VBottom 2
WINDOW 3 32 56 VTop 2
SYMATTR InstName R4
SYMBOL cap 304 544 R90
WINDOW 0 0 32 VBottom 2
WINDOW 3 32 32 VTop 2
SYMATTR InstName C4
SYMBOL res 336 192 R90
WINDOW 0 0 56 VBottom 2
WINDOW 3 32 56 VTop 2
SYMATTR InstName R5
SYMBOL cap 304 80 R90
WINDOW 0 0 32 VBottom 2
WINDOW 3 32 32 VTop 2
SYMATTR InstName C5
